SUMMARY OF JOB INFORMATION
  STEP      INC     ATT  ITRS     TOT TIME     STEP TIME      INC TIME
     1          1     1     2  0.100000E-03  0.100000E-03  0.100000E-03
     1          1     2     2  0.100000E-03  0.100000E-03  0.100000E-03
     1          1     2     2  0.100000E-03  0.100000E-03  0.100000E-03
     1          1     2U    2  0.000000E+00  0.000000E+00  0.100000E-03
