*node, nset=nall
1, 0.596, 0, 0.09
2, 0.596, 0, 0
3, 0.596, 0, 0.00204545
4, 0.596, 0, 0.00409091
5, 0.596, 0, 0.00613636
6, 0.596, 0, 0.00818182
7, 0.596, 0, 0.0102273
8, 0.596, 0, 0.0122727
9, 0.596, 0, 0.0143182
10, 0.596, 0, 0.0163636
11, 0.596, 0, 0.0184091
12, 0.596, 0, 0.0204545
13, 0.596, 0, 0.0225
14, 0.596, 0, 0.0245455
15, 0.596, 0, 0.0265909
16, 0.596, 0, 0.0286364
17, 0.596, 0, 0.0306818
18, 0.596, 0, 0.0327273
19, 0.596, 0, 0.0347727
20, 0.596, 0, 0.0368182
** ... 250 like lines cut
*nset, nset=fix1_beam
181, 2, 47, 137, 183, 92, 
*nset, nset=frontAndBack
46, 3, 4, 5, 6, 7, 8, 
9, 10, 11, 12, 13, 14, 15, 16, 
17, 18, 19, 20, 21, 22, 23, 24, 
25, 26, 27, 28, 29, 30, 31, 32, 
33, 34, 35, 36, 37, 38, 39, 40, 
41, 42, 43, 44, 45, 93, 94, 95, 
96, 97, 98, 99, 100, 101, 102, 103, 
104, 105, 106, 107, 108, 109, 110, 111, 
112, 113, 114, 115, 116, 117, 118, 119, 
120, 121, 122, 123, 124, 125, 126, 127, 
128, 129, 130, 131, 132, 133, 134, 135, 
138, 139, 140, 141, 142, 143, 144, 145, 
146, 147, 148, 149, 150, 151, 152, 153, 
154, 155, 156, 157, 158, 159, 160, 161, 
162, 163, 164, 165, 166, 167, 168, 169, 
170, 171, 172, 173, 174, 175, 176, 177, 
178, 179, 180, 91, 228, 229, 230, 231, 
232, 233, 234, 235, 236, 237, 238, 239, 
240, 241, 242, 243, 244, 245, 246, 247, 
248, 249, 250, 251, 252, 253, 254, 255, 
** ... 14 like lines cut
*nset, nset=top
46, 91, 182, 1, 136, 184, 
*nset, nset=leftAndRight
46, 3, 4, 5, 6, 7, 8, 
9, 10, 11, 12, 13, 14, 15, 16, 
17, 18, 19, 20, 21, 22, 23, 24, 
25, 26, 27, 28, 29, 30, 31, 32, 
33, 34, 35, 36, 37, 38, 39, 40, 
41, 42, 43, 44, 45, 93, 94, 95, 
96, 97, 98, 99, 100, 101, 102, 103, 
104, 105, 106, 107, 108, 109, 110, 111, 
112, 113, 114, 115, 116, 117, 118, 119, 
120, 121, 122, 123, 124, 125, 126, 127, 
128, 129, 130, 131, 132, 133, 134, 135, 
138, 139, 140, 141, 142, 143, 144, 145, 
146, 147, 148, 149, 150, 151, 152, 153, 
154, 155, 156, 157, 158, 159, 160, 161, 
162, 163, 164, 165, 166, 167, 168, 169, 
170, 171, 172, 173, 174, 175, 176, 177, 
178, 179, 180, 91, 1, 136, 48, 49, 
50, 51, 52, 53, 54, 55, 56, 57, 
58, 59, 60, 61, 62, 63, 64, 65, 
66, 67, 68, 69, 70, 71, 72, 73, 
74, 75, 76, 77, 78, 79, 80, 81, 
82, 83, 84, 85, 86, 87, 88, 89, 
90, 2, 47, 137, 92, 
*nset, nset=1element_edge
46, 91, 1, 136, 2, 47, 137, 
92, 
*nset, nset=2element_edge
46, 91, 182, 1, 136, 184, 181, 
2, 47, 137, 183, 92, 
*nset, nset=surface
1, 2, 3, 4, 5, 6, 7, 
8, 9, 10, 11, 12, 13, 14, 15, 
16, 17, 18, 19, 20, 21, 22, 23, 
24, 25, 26, 27, 28, 29, 30, 31, 
32, 33, 34, 35, 36, 37, 38, 39, 
40, 41, 42, 43, 44, 45, 46, 47, 
48, 49, 50, 51, 52, 53, 54, 55, 
56, 57, 58, 59, 60, 61, 62, 63, 
64, 65, 66, 67, 68, 69, 70, 71, 
72, 73, 74, 75, 76, 77, 78, 79, 
80, 81, 82, 83, 84, 85, 86, 87, 
88, 89, 90, 91, 92, 93, 94, 95, 
96, 97, 98, 99, 100, 101, 102, 103, 
104, 105, 106, 107, 108, 109, 110, 111, 
112, 113, 114, 115, 116, 117, 118, 119, 
120, 121, 122, 123, 124, 125, 126, 127, 
128, 129, 130, 131, 132, 133, 134, 135, 
136, 137, 138, 139, 140, 141, 142, 143, 
144, 145, 146, 147, 148, 149, 150, 151, 
152, 153, 154, 155, 156, 157, 158, 159, 
** ... 14 like lines cut
*solid section, material=steel, elset=C3D8
*element, elset=C3D8,type=C3D8
457, 2, 3, 185, 181, 47, 48, 228, 183, 
458, 3, 4, 186, 185, 48, 49, 229, 228, 
459, 4, 5, 187, 186, 49, 50, 230, 229, 
460, 5, 6, 188, 187, 50, 51, 231, 230, 
461, 6, 7, 189, 188, 51, 52, 232, 231, 
462, 7, 8, 190, 189, 52, 53, 233, 232, 
463, 8, 9, 191, 190, 53, 54, 234, 233, 
464, 9, 10, 192, 191, 54, 55, 235, 234, 
465, 10, 11, 193, 192, 55, 56, 236, 235, 
466, 11, 12, 194, 193, 56, 57, 237, 236, 
467, 12, 13, 195, 194, 57, 58, 238, 237, 
468, 13, 14, 196, 195, 58, 59, 239, 238, 
469, 14, 15, 197, 196, 59, 60, 240, 239, 
470, 15, 16, 198, 197, 60, 61, 241, 240, 
471, 16, 17, 199, 198, 61, 62, 242, 241, 
472, 17, 18, 200, 199, 62, 63, 243, 242, 
473, 18, 19, 201, 200, 63, 64, 244, 243, 
474, 19, 20, 202, 201, 64, 65, 245, 244, 
475, 20, 21, 203, 202, 65, 66, 246, 245, 
476, 21, 22, 204, 203, 66, 67, 247, 246, 
** ... 68 like lines cut

*elset, elset=frontAndBackF1
457, 458, 459, 460, 461, 462, 463, 
464, 465, 466, 467, 468, 469, 470, 471, 
472, 473, 474, 475, 476, 477, 478, 479, 
480, 481, 482, 483, 484, 485, 486, 487, 
488, 489, 490, 491, 492, 493, 494, 495, 
496, 497, 498, 499, 500, 501, 502, 503, 
504, 505, 506, 507, 508, 509, 510, 511, 
512, 513, 514, 515, 516, 517, 518, 519, 
520, 521, 522, 523, 524, 525, 526, 527, 
528, 529, 530, 531, 532, 533, 534, 535, 
536, 537, 538, 539, 540, 541, 542, 543, 
544, 
*elset, elset=frontAndBackF2
501, 502, 503, 504, 505, 506, 507, 
508, 509, 510, 511, 512, 513, 514, 515, 
516, 517, 518, 519, 520, 521, 522, 523, 
524, 525, 526, 527, 528, 529, 530, 531, 
532, 533, 534, 535, 536, 537, 538, 539, 
540, 541, 542, 543, 544, 457, 458, 459, 
460, 461, 462, 463, 464, 465, 466, 467, 
468, 469, 470, 471, 472, 473, 474, 475, 
476, 477, 478, 479, 480, 481, 482, 483, 
484, 485, 486, 487, 488, 489, 490, 491, 
492, 493, 494, 495, 496, 497, 498, 499, 
500, 
*elset, elset=topF4
500, 544, 
*elset, elset=leftAndRightF3
457, 458, 459, 460, 461, 462, 463, 
464, 465, 466, 467, 468, 469, 470, 471, 
472, 473, 474, 475, 476, 477, 478, 479, 
480, 481, 482, 483, 484, 485, 486, 487, 
488, 489, 490, 491, 492, 493, 494, 495, 
496, 497, 498, 499, 500, 
*elset, elset=leftAndRightF5
544, 543, 542, 541, 540, 539, 538, 
537, 536, 535, 534, 533, 532, 531, 530, 
529, 528, 527, 526, 525, 524, 523, 522, 
521, 520, 519, 518, 517, 516, 515, 514, 
513, 512, 511, 510, 509, 508, 507, 506, 
505, 504, 503, 502, 501, 
*elset, elset=surfaceF1
457, 458, 459, 460, 461, 462, 463, 
464, 465, 466, 467, 468, 469, 470, 471, 
472, 473, 474, 475, 476, 477, 478, 479, 
480, 481, 482, 483, 484, 485, 486, 487, 
488, 489, 490, 491, 492, 493, 494, 495, 
496, 497, 498, 499, 500, 501, 502, 503, 
504, 505, 506, 507, 508, 509, 510, 511, 
512, 513, 514, 515, 516, 517, 518, 519, 
520, 521, 522, 523, 524, 525, 526, 527, 
528, 529, 530, 531, 532, 533, 534, 535, 
536, 537, 538, 539, 540, 541, 542, 543, 
544, 
*elset, elset=surfaceF2
501, 502, 503, 504, 505, 506, 507, 
508, 509, 510, 511, 512, 513, 514, 515, 
516, 517, 518, 519, 520, 521, 522, 523, 
524, 525, 526, 527, 528, 529, 530, 531, 
532, 533, 534, 535, 536, 537, 538, 539, 
540, 541, 542, 543, 544, 457, 458, 459, 
460, 461, 462, 463, 464, 465, 466, 467, 
468, 469, 470, 471, 472, 473, 474, 475, 
476, 477, 478, 479, 480, 481, 482, 483, 
484, 485, 486, 487, 488, 489, 490, 491, 
492, 493, 494, 495, 496, 497, 498, 499, 
500, 
*elset, elset=surfaceF3
457, 458, 459, 460, 461, 462, 463, 
464, 465, 466, 467, 468, 469, 470, 471, 
472, 473, 474, 475, 476, 477, 478, 479, 
480, 481, 482, 483, 484, 485, 486, 487, 
488, 489, 490, 491, 492, 493, 494, 495, 
496, 497, 498, 499, 500, 
*elset, elset=surfaceF4
500, 544, 
*elset, elset=surfaceF5
544, 543, 542, 541, 540, 539, 538, 
537, 536, 535, 534, 533, 532, 531, 530, 
529, 528, 527, 526, 525, 524, 523, 522, 
521, 520, 519, 518, 517, 516, 515, 514, 
513, 512, 511, 510, 509, 508, 507, 506, 
505, 504, 503, 502, 501, 
*surface, type=element, name=sfrontAndBack
frontAndBackF1, S1
frontAndBackF2, S2
*surface, type=element, name=stop
topF4, S4
*surface, type=element, name=sleftAndRight
leftAndRightF3, S3
leftAndRightF5, S5
*surface, type=element, name=ssurface
surfaceF1, S1
surfaceF2, S2
surfaceF3, S3
surfaceF4, S4
surfaceF5, S5

*material, name=steel
*elastic
209000.0, 0.3
*density
7.85e-09
*step
*frequency
12
*nodefile
u
*elfile, output=3D
s, e
*endstep
